44
	Energy:      -5.2373370
C        -12.80130        0.70248       -0.00061
C        -11.52364        0.71617       -0.00028
C        -10.24563        0.75268        0.00001
C         -8.96940        0.80704        0.00022
C         -7.69267        0.87082        0.00033
C         -6.41712        0.93409        0.00036
C         -5.14012        0.98841        0.00031
C         -3.86384        1.02871        0.00020
C         -2.58605        1.05493        0.00006
C         -1.30934        1.07165       -0.00007
C         -0.03142        1.08689       -0.00019
C          1.24518        1.10949       -0.00026
C          2.52266        1.14653       -0.00027
C          3.79838        1.20077       -0.00023
C          5.07462        1.26977       -0.00014
C          6.34940        1.34577       -0.00003
C          7.62561        1.41782        0.00006
C          8.90166        1.47399        0.00009
C         10.17970        1.50473        0.00006
C         11.45731        1.50507       -0.00005
C         12.73567        1.47618       -0.00021
C         14.01272        1.42536       -0.00037
C         15.29030        1.36438       -0.00043
C         16.56760        1.30731       -0.00029
C         17.84637        1.26738        0.00015
C         19.12543        1.25463        0.00097
C        -14.08006        0.71157       -0.00095
C        -15.35796        0.73836       -0.00122
C        -16.63662        0.77385       -0.00135
C        -17.91487        0.80698       -0.00127
C        -19.19422        0.82716       -0.00090
C         20.40509        1.27389        0.00226
C         21.68385        1.32423        0.00407
C        -20.47346        0.82628       -0.00021
C        -21.75310        0.80030        0.00084
C        -23.03195        0.74987        0.00226
C        -24.31050        0.67973        0.00406
C        -25.61199        0.59566        0.00634
H        -26.17118        0.83360       -0.89145
H        -26.12755        0.22150        0.88375
C         22.96203        1.39962        0.00646
C         24.26285        1.49263        0.00966
H         24.84387        0.98776       -0.75365
H         24.75601        2.13370        0.73192
