54
	Energy:      -6.1073461
C        -12.47691        1.12909       -0.00019
C        -11.20321        1.21489       -0.00042
C         -9.92736        1.27486       -0.00052
C         -8.65162        1.30811       -0.00050
C         -7.37470        1.31885       -0.00039
C         -6.09885        1.31531       -0.00024
C         -4.82213        1.30790       -0.00008
C         -3.54654        1.30671        0.00005
C         -2.27007        1.31881        0.00013
C         -0.99497        1.34632        0.00014
C          0.28083        1.38567        0.00010
C          1.55541        1.42807        0.00002
C          2.83130        1.46177       -0.00007
C          4.10646        1.47477       -0.00015
C          5.38264        1.45823       -0.00020
C          6.65695        1.40907       -0.00021
C          7.93095        1.33130       -0.00016
C          9.20282        1.23601       -0.00007
C         10.47567        1.13917        0.00006
C         11.74880        1.05908        0.00022
C         13.02462        1.01244        0.00038
C         14.30052        1.01157        0.00054
C         15.57646        1.06188        0.00067
C         16.84890        1.16114        0.00075
C         18.11861        1.30059        0.00075
C         19.38462        1.46671        0.00067
C         20.64998        1.64460        0.00048
C         21.91529        1.82003        0.00020
C         23.18321        1.98228       -0.00018
C         24.45325        2.12471       -0.00061
C        -13.75012        1.02289        0.00016
C        -15.02177        0.90535        0.00060
C        -16.29431        0.78689        0.00107
C        -17.56724        0.67783        0.00150
C        -18.84243        0.58631        0.00182
C        -20.11875        0.51761        0.00196
C        -21.39693        0.47347        0.00190
C        -22.67555        0.45269        0.00162
C        -23.95501        0.45178        0.00117
C        -25.23439        0.46607        0.00059
C        -26.51415        0.49070       -0.00003
C        -27.79402        0.52134       -0.00066
C        -29.09781        0.55536       -0.00128
H        -29.62129        1.24745        0.64874
H        -29.65601       -0.10302       -0.65720
C         25.72630        2.24550       -0.00103
C         27.00097        2.34651       -0.00137
C         28.27742        2.43222       -0.00155
C         29.55454        2.50790       -0.00150
C         30.83250        2.57845       -0.00118
C         32.11080        2.64733       -0.00062
C         33.41308        2.71760        0.00009
H         33.97531        2.33272        0.84341
H         33.93097        3.16752       -0.83938
