26
	Energy:      -3.1236649
C        -10.05216        2.41119        0.00807
C         -8.84903        2.48593        0.00852
H        -11.10860        2.34537        0.00775
C         -7.43955        2.57314        0.00918
C         -6.23630        2.64721        0.00993
C         -4.82661        2.73365        0.01106
C         -3.62326        2.80754        0.01225
C         -2.21342        2.89483        0.01382
C         -1.01011        2.97068        0.01521
C          0.39965        3.06181        0.01679
C          1.60274        3.14202        0.01796
C          3.01221        3.23900        0.01905
C          4.21501        3.32397        0.01970
C          5.62421        3.42518        0.02016
C          6.82692        3.51145        0.02042
C          8.23624        3.61046        0.02076
C          9.43932        3.69086        0.02135
C         10.84932        3.77794        0.02268
C         12.05320        3.84409        0.02467
C         13.46416        3.91051        0.02822
C         14.66886        3.95714        0.03245
C         16.08051        4.00044        0.03881
C         17.28567        4.02923        0.04527
C         18.69757        4.05575        0.05380
C         19.90283        4.07501        0.06153
H         20.96119        4.09009        0.06857
