18
	Energy:       3.2501941
C         -7.20888        1.61247        0.02109
C         -6.09299        2.34490        0.04959
H         -7.16074        0.52896       -0.03492
H         -8.17838        2.09888        0.05407
C         -4.74041        1.68720        0.00477
C         -3.61715        2.72887        0.05001
H         -6.17265        3.42748        0.10593
H         -4.64308        1.00132        0.87487
H         -4.65735        1.09480       -0.93288
C         -2.24028        2.05635        0.00463
C         -1.12032        3.09180        0.05087
H         -1.18017        3.68357        0.98915
H         -1.19331        3.77871       -0.81916
H         -0.13647        2.57817        0.01674
H         -3.70519        3.32172        0.98757
H         -3.71900        3.41558       -0.81965
H         -2.13040        1.37032        0.87278
H         -2.14368        1.46490       -0.93199
