26
	Energy:      44.4538256
C         -5.50667        2.21774        0.30295
C         -6.07386        2.60461       -1.06920
C         -5.30816        3.52701        1.11509
C         -6.56269        1.42529        1.04723
H         -5.40547        3.31216       -1.60870
H         -6.98286        3.09676       -0.99343
H         -6.21147        1.70875       -1.66854
H         -4.73877        4.30427        0.53254
H         -4.72350        3.28126        2.04954
H         -6.27180        3.99561        1.41887
H         -6.75789        0.47696        0.46308
H         -7.52265        1.95109        1.17302
H         -6.21534        1.13886        2.07566
C         -4.20271        1.40860        0.18357
C         -2.94110        1.93263       -0.59962
H         -4.50233        0.46449       -0.33625
H         -3.88531        1.10270        1.20786
C         -2.19999        0.80597       -0.99936
H         -1.76136        0.19318       -0.13141
H         -1.28113        1.13840       -1.56550
H         -2.66071        0.07531       -1.68404
C         -2.23388        2.83649        0.18699
H         -1.92875        2.53487        1.19877
H         -2.72514        3.84437        0.29445
H         -1.27180        3.13891       -0.33736
H         -3.35686        2.51604       -1.57325
