16
	Energy:      -1.3029881
C         -5.84613        2.36457       -0.00559
C         -5.14337        3.69986       -0.18195
H         -5.63126        1.93108        0.97729
H         -5.52514        1.64497       -0.76667
H         -6.92996        2.49077       -0.09221
C         -3.68628        3.55456       -0.06658
H         -5.50614        4.40447        0.57461
H         -5.39802        4.11873       -1.16177
C         -2.49441        3.44006        0.03020
C         -1.03767        3.29774        0.15357
C         -0.33479        4.62880       -0.05207
H          0.74795        4.50755        0.05306
H         -0.66749        5.36997        0.68286
H         -0.53688        5.03254       -1.05021
H         -0.78711        2.90346        1.14462
H         -0.67138        2.57478       -0.58367
