52
	Energy:      -5.3203500
C          0.78598      -31.49696       -0.00269
C          0.53486      -30.31996       -0.02048
H          1.00670      -32.53190        0.01297
C          0.24092      -28.94203       -0.03993
C         -0.00990      -27.76497       -0.05408
C         -0.30289      -26.38685       -0.06658
C         -0.55198      -25.20938       -0.07278
C         -0.84127      -23.83044       -0.07401
C         -1.08513      -22.65187       -0.06937
C         -1.36509      -21.27106       -0.05703
C         -1.59745      -20.09028       -0.04063
C         -1.85906      -18.70605       -0.01494
C         -2.07081      -17.52160        0.01189
C         -2.30186      -16.13219        0.04808
C         -2.48149      -14.94262        0.08189
C         -2.66754      -13.54664        0.12345
C         -2.80225      -12.35122        0.15908
C         -2.92822      -10.94851        0.19926
C         -3.00555       -9.74790        0.23057
C         -3.05789       -8.34033        0.26201
C         -3.06772       -7.13706        0.28282
C         -3.03683       -5.72861        0.29869
C         -2.97341       -4.52682        0.30381
C         -2.85590       -3.12287        0.29903
C         -2.71953       -1.92724        0.28518
C         -2.51971       -0.53290        0.25737
C         -2.31754        0.65299        0.22390
C         -2.04777        2.03488        0.17395
C         -1.79358        3.21009        0.12306
C         -1.47342        4.58042        0.05517
C         -1.18641        5.74744       -0.00827
C         -0.84079        7.11099       -0.08703
C         -0.54384        8.27520       -0.15602
C         -0.20081        9.63928       -0.23655
C          0.08165       10.80724       -0.30280
C          0.39350       12.17923       -0.37502
C          0.63771       13.35635       -0.42988
C          0.89204       14.74094       -0.48399
C          1.07747       15.92945       -0.51966
C          1.25329       17.32692       -0.54747
C          1.36531       18.52505       -0.55810
C          1.44997       19.93124       -0.55439
C          1.48211       21.13408       -0.53710
C          1.47353       22.54232       -0.50053
C          1.42884       23.74407       -0.45599
C          1.33614       25.14820       -0.38942
C          1.22692       26.34474       -0.32178
C          1.06930       27.74180       -0.23191
C          0.91543       28.93245       -0.14820
C          0.71955       30.32380       -0.04453
C          0.54594       31.51126        0.04630
H          0.39324       32.55547        0.12620
