42
	Energy:      -4.7767198
C          0.54314      -25.07385        0.00719
C          0.30782      -23.89648       -0.08039
H          0.74996      -26.10892        0.08419
C          0.03245      -22.51784       -0.18071
C         -0.20233      -21.33997       -0.26231
C         -0.47626      -19.96034       -0.35094
C         -0.70878      -18.78120       -0.41878
C         -0.97839      -17.39957       -0.48721
C         -1.20521      -16.21832       -0.53465
C         -1.46518      -14.83377       -0.57598
C         -1.68062      -13.64967       -0.59807
C         -1.92298      -12.26134       -0.60772
C         -2.11922      -11.07371       -0.60173
C         -2.33385       -9.68100       -0.57799
C         -2.50165       -8.48951       -0.54378
C         -2.67737       -7.09226       -0.48813
C         -2.80725       -5.89704       -0.42837
C         -2.93338       -4.49580       -0.34557
C         -3.01698       -3.29763       -0.26568
C         -3.08501       -1.89364       -0.16353
C         -3.11646       -0.69386       -0.07128
C         -3.12144        0.71107        0.04002
C         -3.09835        1.91081        0.13518
C         -3.03972        3.31473        0.24396
C         -2.96356        4.51282        0.33188
C         -2.84524        5.91402        0.42632
C         -2.72104        7.10922        0.49725
C         -2.55067        8.50651        0.56669
C         -2.38617        9.69807        0.61246
C         -2.17384       11.09086        0.64867
C         -1.97818       12.27849        0.66368
C         -1.73484       13.66667        0.66198
C         -1.51722       14.85044        0.64395
C         -1.25316       16.23424        0.60381
C         -1.02165       17.41448        0.55417
C         -0.74530       18.79443        0.47944
C         -0.50611       19.97173        0.40323
C         -0.22348       21.34871        0.30172
C          0.01928       22.52396        0.20706
C          0.30446       23.89924        0.08969
C          0.54836       25.07363       -0.01317
H          0.76270       26.10608       -0.10363
