42
	Energy:      -1.9079626
C          0.54314      -25.00613        0.00719
C          0.63239      -23.80969        0.05923
H          0.46431      -26.06052       -0.03881
C          0.72033      -22.40887        0.11414
C          0.76620      -21.20949        0.15054
C          0.77257      -19.80524        0.17630
C          0.72781      -18.60534        0.18078
C          0.61105      -17.20585        0.16401
C          0.45499      -16.01573        0.13115
C          0.21008      -14.63395        0.07314
C         -0.04506      -13.46223        0.01047
C         -0.38598      -12.10219       -0.07325
C         -0.70017      -10.94554       -0.14805
C         -1.07904       -9.59559       -0.23330
C         -1.39665       -8.43925       -0.29833
C         -1.74491       -7.07979       -0.35981
C         -2.00782       -5.90855       -0.39538
C         -2.26143       -4.52708       -0.41383
C         -2.42164       -3.33694       -0.40798
C         -2.53557       -1.93728       -0.37568
C         -2.56676       -0.73774       -0.32773
C         -2.52625        0.66428       -0.25079
C         -2.43000        1.85873       -0.17128
C         -2.25269        3.24841       -0.06709
C         -2.05555        4.42944        0.02624
C         -1.78308        5.80335        0.13511
C         -1.52661        6.97340        0.22292
C         -1.21142        8.33940        0.31508
C         -0.94094        9.50773        0.38117
C         -0.63426       10.87745        0.44085
C         -0.38993       12.05287        0.47495
C         -0.13278       13.43389        0.49411
C          0.05684       14.61984        0.49278
C          0.23975       16.01260        0.47126
C          0.36160       17.20693        0.43724
C          0.46462       18.60692        0.38112
C          0.52183       19.80511        0.32147
C          0.55728       21.20726        0.24053
C          0.56674       22.40588        0.16439
C          0.56055       23.80772        0.06980
C          0.54836       25.00591       -0.01317
H          0.53772       26.06167       -0.08614
