38
	Energy:      -3.9108948
C          0.43193      -22.44387       -0.00022
C          0.25550      -21.25571       -0.08022
H          0.58698      -23.48842        0.07015
C          0.04783      -19.86462       -0.17096
C         -0.13144      -18.67644       -0.24314
C         -0.34433      -17.28532       -0.31877
C         -0.52924      -16.09709       -0.37341
C         -0.74946      -14.70599       -0.42368
C         -0.94052      -13.51784       -0.45328
C         -1.16695      -12.12694       -0.47116
C         -1.36155      -10.93901       -0.47144
C         -1.58912       -9.54828       -0.45405
C         -1.78119       -8.36030       -0.42447
C         -2.00083       -6.96912       -0.37351
C         -2.18106       -5.78024       -0.31743
C         -2.38023       -4.38726       -0.23894
C         -2.53678       -3.19611       -0.16319
C         -2.70058       -1.79965       -0.06688
C         -2.82020       -0.60492        0.01907
C         -2.93286        0.79619        0.12103
C         -3.00228        1.99493        0.20619
C         -3.04900        3.40030        0.30061
C         -3.05664        4.60180        0.37384
C         -3.02556        6.00878        0.44819
C         -2.96317        7.20981        0.49960
C         -2.84724        8.61363        0.54366
C         -2.71139        9.80947        0.56603
C         -2.50984       11.20424        0.57337
C         -2.30276       12.38999        0.56316
C         -2.02161       13.77060        0.53209
C         -1.75128       14.94284        0.49000
C         -1.40297       16.30682        0.42381
C         -1.08236       17.46504        0.35463
C         -0.68449       18.81380        0.26107
C         -0.33031       19.96094        0.17300
C          0.09599       21.29986        0.06320
C          0.46472       22.44178       -0.03327
H          0.78889       23.44567       -0.11811
