52
	Energy:      -4.2211572
C          0.78598      -31.41187       -0.00269
C          0.66475      -30.21640       -0.06167
H          0.89253      -32.46355        0.04919
C          0.51912      -28.81738       -0.12820
C          0.38804      -27.62268       -0.18046
C          0.22376      -26.22527       -0.23398
C          0.07169      -25.03253       -0.27110
C         -0.12168      -23.63819       -0.30272
C         -0.30082      -22.44873       -0.31821
C         -0.52656      -21.05891       -0.32188
C         -0.73192      -19.87364       -0.31211
C         -0.98461      -18.48870       -0.28557
C         -1.20777      -17.30712       -0.25044
C         -1.47330      -15.92541       -0.19575
C         -1.69890      -14.74513       -0.13891
C         -1.95591      -13.36282       -0.06247
C         -2.16340      -12.18001        0.00893
C         -2.38582      -10.79242        0.09695
C         -2.55200       -9.60339        0.17293
C         -2.71243       -8.20720        0.25960
C         -2.81465       -7.01056        0.32843
C         -2.88847       -5.60629        0.39968
C         -2.90829       -4.40453        0.44950
C         -2.87801       -2.99752        0.49214
C         -2.80491       -1.79698        0.51286
C         -2.66411       -0.39607        0.51699
C         -2.49818        0.79528        0.50227
C         -2.25371        2.18133        0.46335
C         -2.00650        3.35749        0.41204
C         -1.67818        4.72435        0.33211
C         -1.37137        5.88455        0.24882
C         -0.98933        7.23511        0.13646
C         -0.65185        8.38496        0.03103
C         -0.25278        9.72893       -0.09964
C          0.08252       10.87863       -0.21335
C          0.45928       12.22897       -0.34445
C          0.75892       13.38920       -0.45023
C          1.07526       14.75662       -0.56230
C          1.30859       15.93388       -0.64376
C          1.53193       17.32198       -0.71857
C          1.67511       18.51555       -0.76173
C          1.78339       19.91909       -0.78550
C          1.82355       21.12129       -0.78147
C          1.80956       22.52873       -0.74781
C          1.74771       23.72886       -0.69490
C          1.62102       25.12829       -0.60635
C          1.47219       26.31812       -0.51055
C          1.25770       27.70338       -0.37823
C          1.04837       28.88126       -0.25203
C          0.78202       30.25484       -0.09349
C          0.54594       31.42617        0.04630
H          0.33825       32.45661        0.16932
