48
	Energy:      -3.9699864
C          0.69764      -28.84929        0.00225
C          0.51222      -27.66144       -0.03691
H          0.86065      -29.89443        0.03672
C          0.29211      -26.27158       -0.08066
C          0.09868      -25.08488       -0.11430
C         -0.13622      -23.69724       -0.14750
C         -0.34576      -22.51302       -0.16907
C         -0.60198      -21.12888       -0.18516
C         -0.82995      -19.94788       -0.19027
C         -1.10590      -18.56744       -0.18578
C         -1.34695      -17.38909       -0.17306
C         -1.63164      -16.01064       -0.14830
C         -1.87250      -14.83252       -0.11964
C         -2.14619      -13.45223       -0.07866
C         -2.36696      -12.27050       -0.03894
C         -2.60352      -10.88368        0.01113
C         -2.78031       -9.69472        0.05486
C         -2.95098       -8.29828        0.10492
C         -3.05965       -7.10105        0.14455
C         -3.13791       -5.69614        0.18510
C         -3.15860       -4.49385        0.21287
C         -3.12575       -3.08678        0.23568
C         -3.04747       -1.88660        0.24565
C         -2.89743       -0.48699        0.24539
C         -2.72143        0.70278        0.23468
C         -2.46345        2.08636        0.21009
C         -2.20411        3.26045        0.17949
C         -1.86207        4.62516        0.13365
C         -1.54506        5.78450        0.08753
C         -1.15412        7.13547        0.02733
C         -0.81274        8.28752       -0.02721
C         -0.41460        9.63615       -0.09228
C         -0.08564       10.79180       -0.14647
C          0.27645       12.15078       -0.20577
C          0.55709       13.31947       -0.25054
C          0.84361       14.69691       -0.29388
C          1.04565       15.88222       -0.32129
C          1.22668       17.27794       -0.34066
C          1.33062       18.47612       -0.34537
C          1.39161       19.88231       -0.33658
C          1.39290       21.08483       -0.31698
C          1.33814       22.49086       -0.28060
C          1.24860       23.68951       -0.23926
C          1.10088       25.08813       -0.18054
C          0.94661       26.27959       -0.12360
C          0.74294       27.67065       -0.05137
C          0.55966       28.85769        0.01258
H          0.39835       29.90214        0.06887
