22
	Energy:      -1.5582191
C         12.18588        0.00000        0.03353
C         11.01404        0.00000       -0.23656
H         13.21719        0.00000        0.27115
C          9.64087        0.00000       -0.54484
C          8.46444        0.00000       -0.79388
C          7.08279        0.00000       -1.06114
C          5.89723        0.00000       -1.26204
C          4.50385        0.00000       -1.45894
C          3.30851        0.00000       -1.58940
C          1.90518        0.00000       -1.69382
C          0.70360        0.00000       -1.73905
C         -0.70360        0.00000       -1.73905
C         -1.90518        0.00000       -1.69382
C         -3.30851        0.00000       -1.58940
C         -4.50385        0.00000       -1.45894
C         -5.89723        0.00000       -1.26204
C         -7.08279        0.00000       -1.06114
C         -8.46444        0.00000       -0.79388
C         -9.64087        0.00000       -0.54484
C        -11.01404        0.00000       -0.23656
C        -12.18588        0.00000        0.03353
H        -13.21719        0.00000        0.27115
