34
	Energy:      -3.4535224
C          0.32559      -19.88037       -0.01905
C          0.11604      -18.69499        0.00210
H          0.50970      -20.92240       -0.03765
C         -0.12959      -17.30717        0.02608
C         -0.33972      -16.12192        0.04516
C         -0.58605      -14.73424        0.06520
C         -0.79631      -13.54898        0.07974
C         -1.04156      -12.16104        0.09326
C         -1.24903      -10.97524        0.10147
C         -1.48794       -9.58613        0.10693
C         -1.68641       -8.39877        0.10797
C         -1.90964       -7.00704        0.10503
C         -2.08943       -5.81673        0.09918
C         -2.28379       -4.42071        0.08878
C         -2.43229       -3.22614        0.07734
C         -2.58179       -1.82468        0.06151
C         -2.68473       -0.62538        0.04659
C         -2.77244        0.78126        0.02818
C         -2.81574        1.98417        0.01239
C         -2.82623        3.39348       -0.00544
C         -2.79823        4.59685       -0.01942
C         -2.72026        6.00407       -0.03368
C         -2.61400        7.20310       -0.04354
C         -2.44298        8.60209       -0.05192
C         -2.25791        9.79155       -0.05611
C         -1.99739       11.17669       -0.05738
C         -1.74018       12.35268       -0.05537
C         -1.40207       13.72095       -0.04956
C         -1.08616       14.88254       -0.04194
C         -0.68966       16.23503       -0.03031
C         -0.33393       17.38506       -0.01861
C          0.09651       18.72719       -0.00343
C          0.46970       19.87173        0.01013
H          0.79781       20.87785        0.02206
