16
	Energy:       2.2322279
C          8.10674        0.00000       -0.01016
C          6.99228        0.00000        0.43727
H          9.08892        0.00000       -0.40434
C          5.67830        0.00000        0.93380
C          4.53770        0.00000        1.30920
C          3.17956        0.00000        1.66658
C          1.99837        0.00000        1.88174
C          0.60028        0.00000        2.01228
C         -0.60028        0.00000        2.01228
C         -1.99837        0.00000        1.88174
C         -3.17956        0.00000        1.66658
C         -4.53770        0.00000        1.30920
C         -5.67830        0.00000        0.93380
C         -6.99228        0.00000        0.43727
C         -8.10674        0.00000       -0.01016
H         -9.08892        0.00000       -0.40434
