10
	Energy:       5.0105266
C          4.35460        0.00000       -0.00216
C          3.21848        0.00000        0.35441
H          5.36444        0.00000       -0.31885
C          1.87271        0.00000        0.69462
C          0.69368        0.00000        0.85694
C         -0.69368        0.00000        0.85694
C         -1.87271        0.00000        0.69462
C         -3.21848        0.00000        0.35441
C         -4.35460        0.00000       -0.00216
H         -5.36444        0.00000       -0.31885
