26
	Energy:      -0.7103005
C         -0.03389       14.35423        0.00205
C          0.40239       13.23212       -0.00376
H         -0.41726       15.34067        0.00717
C          0.90688       11.91591       -0.01040
C          1.32587       10.78729       -0.01579
C          1.79585        9.45847       -0.02161
C          2.17289        8.31519       -0.02604
C          2.57880        6.96547       -0.03049
C          2.88808        5.80205       -0.03358
C          3.19925        4.42744       -0.03630
C          3.41465        3.24308       -0.03784
C          3.60136        1.84618       -0.03871
C          3.69923        0.64641       -0.03868
C          3.73702       -0.76234       -0.03779
C          3.70052       -1.96550       -0.03636
C          3.57581       -3.36918       -0.03399
C          3.39971       -4.55993       -0.03145
C          3.11469       -5.94002       -0.02797
C          2.80839       -7.10410       -0.02466
C          2.38271       -8.44752       -0.02047
C          1.96982       -9.57823       -0.01671
C          1.43816      -10.88341       -0.01214
C          0.95313      -11.98517       -0.00815
C          0.36013      -13.26380       -0.00343
C         -0.15638      -14.35123        0.00063
H         -0.61056      -15.30715        0.00420
