38
	Energy:       5.7835646
C          0.43193      -21.83609       -0.00022
C          0.78515      -20.69226       -0.09349
C          1.16593      -19.34445       -0.19680
C          1.43272      -18.17643       -0.27453
C          1.64796      -16.79101       -0.34782
C          1.72679      -15.59396       -0.39109
C          1.68130      -14.19121       -0.41595
C          1.51990      -13.00172       -0.41391
C          1.19375      -11.63669       -0.38493
C          0.81219      -10.49928       -0.33986
C          0.26830       -9.20691       -0.26735
C         -0.25385       -8.12817       -0.19329
C         -0.90230       -6.88626       -0.09800
C         -1.45942       -5.82575       -0.01473
C         -2.08428       -4.57177        0.07916
C         -2.56677       -3.47461        0.15107
C         -3.04292       -2.15574        0.22041
C         -3.35131       -0.99628        0.26302
C         -3.57852        0.38859        0.29044
C         -3.64951        1.58692        0.29352
C         -3.58845        2.98911        0.27384
C         -3.42263        4.17761        0.23941
C         -3.11346        5.54580        0.18231
C         -2.77340        6.69576        0.12374
C         -2.31327        8.02013        0.04906
C         -1.89319        9.14307       -0.01480
C         -1.39691       10.45455       -0.08438
C         -0.99239       11.58374       -0.13492
C         -0.56351       12.91963       -0.17968
C         -0.25093       14.07836       -0.20290
C          0.04062       15.45133       -0.21096
C          0.22308       16.63764       -0.20153
C          0.36185       18.03412       -0.17292
C          0.42732       19.23212       -0.13626
C          0.45782       20.63464       -0.08303
C          0.46472       21.83400       -0.03327
H          0.47031       22.89141        0.01066
H          0.12057      -22.84424        0.08200
