8
	Energy:       5.6552785
C          0.00000        0.00000       -3.10219
C          0.00000        0.00000       -1.93474
H          0.00000        0.00000       -4.16052
C          0.00000        0.00000       -0.58377
C          0.00000        0.00000        0.58377
C          0.00000        0.00000        1.93474
C          0.00000        0.00000        3.10219
H          0.00000        0.00000        4.16052
