20
	Energy:       0.8617984
C         10.60625        0.00000        0.02839
C          9.49675        0.00000       -0.43530
H         11.58276        0.00000        0.43643
C          8.19171        0.00000       -0.96175
C          7.06502        0.00000       -1.38170
C          5.72887        0.00000       -1.82276
C          4.56978        0.00000       -2.14233
C          3.19394        0.00000       -2.43653
C          2.00419        0.00000       -2.60957
C          0.60113        0.00000       -2.71302
C         -0.60113        0.00000       -2.71302
C         -2.00419        0.00000       -2.60957
C         -3.19394        0.00000       -2.43653
C         -4.56978        0.00000       -2.14233
C         -5.72887        0.00000       -1.82276
C         -7.06502        0.00000       -1.38170
C         -8.19171        0.00000       -0.96175
C         -9.49675        0.00000       -0.43530
C        -10.60625        0.00000        0.02839
H        -11.58276        0.00000        0.43643
