18
	Energy:       1.5084721
C          0.01456        9.35661        0.00000
C         -0.43488        8.24151        0.00000
H          0.41001       10.33829        0.00000
C         -0.94187        6.92918        0.00000
C         -1.33999        5.79485        0.00000
C         -1.74646        4.44821        0.00000
C         -2.02608        3.27914        0.00000
C         -2.25908        1.89211        0.00000
C         -2.36620        0.69494        0.00000
C         -2.37666       -0.71137        0.00000
C         -2.28554       -1.90984        0.00000
C         -2.06569       -3.29892        0.00000
C         -1.79024       -4.46892        0.00000
C         -1.37961       -5.81417        0.00000
C         -0.97080       -6.94463        0.00000
C         -0.44486       -8.24938        0.00000
C          0.02365       -9.35655        0.00000
H          0.43626      -10.33113        0.00000
