42
	Energy:      -4.8092058
C          0.54314      -25.08889        0.00719
C          0.31233      -23.91030       -0.07548
H          0.74599      -26.12506        0.07987
C          0.04223      -22.53030       -0.17018
C         -0.18811      -21.35129       -0.24722
C         -0.45695      -19.97040       -0.33094
C         -0.68524      -18.79025       -0.39505
C         -0.95006      -17.40759       -0.45975
C         -1.17295      -16.22551       -0.50467
C         -1.42851      -14.84016       -0.54387
C         -1.64038      -13.65540       -0.56490
C         -1.87880      -12.26647       -0.57424
C         -2.07189      -11.07833       -0.56878
C         -2.28307       -9.68515       -0.54659
C         -2.44817       -8.49322       -0.51446
C         -2.62097       -7.09558       -0.46208
C         -2.74861       -5.89995       -0.40575
C         -2.87239       -4.49832       -0.32760
C         -2.95425       -3.29975       -0.25214
C         -3.02055       -1.89537       -0.15557
C         -3.05081       -0.69519       -0.06829
C         -3.05474        0.71012        0.03707
C         -3.03110        1.91023        0.12723
C         -2.97223        3.31448        0.23035
C         -2.89625        4.51291        0.31375
C         -2.77862        5.91438        0.40340
C         -2.65546        7.10990        0.47078
C         -2.48684        8.50748        0.53679
C         -2.32431        9.69939        0.58035
C         -2.11488       11.09258        0.61488
C         -1.92219       12.28070        0.62926
C         -1.68292       13.66950        0.62780
C         -1.46924       14.85399        0.61080
C         -1.21034       16.23875        0.57281
C         -0.98367       17.42001        0.52574
C         -0.71342       18.80131        0.45482
C         -0.47977       19.97993        0.38246
C         -0.20397       21.35860        0.28604
C          0.03277       22.53542        0.19610
C          0.31071       23.91261        0.08458
C          0.54836       25.08868       -0.01317
H          0.75722       26.12263       -0.09914
