48
	Energy:      -4.2413592
C          0.69764      -28.94479        0.00225
C          0.57731      -27.74873       -0.03387
H          0.80342      -29.99735        0.03404
C          0.43226      -26.34932       -0.07428
C          0.30084      -25.15433       -0.10545
C          0.13492      -23.75710       -0.13641
C         -0.01976      -22.56469       -0.15676
C         -0.21749      -21.17136       -0.17233
C         -0.40119      -19.98291       -0.17787
C         -0.63269      -18.59471       -0.17490
C         -0.84261      -17.41063       -0.16431
C         -1.09928      -16.02702       -0.14296
C         -1.32367      -14.84580       -0.11786
C         -1.58693      -13.46373       -0.08165
C         -1.80635      -12.28183       -0.04633
C         -2.05004      -10.89642       -0.00154
C         -2.24010       -9.70958        0.03779
C         -2.43428       -8.31640        0.08313
C         -2.56935       -7.12196        0.11931
C         -2.68518       -5.71989        0.15675
C         -2.74287       -4.51898        0.18286
C         -2.75810       -3.11192        0.20503
C         -2.72395       -1.90988        0.21569
C         -2.62804       -0.50586        0.21769
C         -2.49925        0.68977        0.21014
C         -2.29659        2.08227        0.19061
C         -2.08352        3.26555        0.16536
C         -1.79357        4.64215        0.12680
C         -1.51847        5.81220        0.08752
C         -1.17290        7.17549        0.03584
C         -0.86653        8.33746       -0.01127
C         -0.50453        9.69629       -0.06777
C         -0.20189       10.85922       -0.11503
C          0.13501       12.22465       -0.16698
C          0.39918       13.39718       -0.20640
C          0.67249       14.77715       -0.24482
C          0.86852       15.96334       -0.26939
C          1.04860       17.35892       -0.28717
C          1.15677       18.55655       -0.29213
C          1.22827       19.96197       -0.28551
C          1.24286       21.16428       -0.26934
C          1.20820       22.57080       -0.23869
C          1.13904       23.77082       -0.20352
C          1.01827       25.17205       -0.15332
C          0.88895       26.36665       -0.10448
C          0.71605       27.76205       -0.04242
C          0.55966       28.95319        0.01258
H          0.42199       30.00142        0.06100
