18
	Energy:      -1.3278537
C          0.01456        9.67492        0.00000
C         -0.14667        8.48487        0.00000
H          0.15653       10.72369        0.00000
C         -0.32768        7.09184        0.00000
C         -0.46857        5.89925        0.00000
C         -0.61038        4.50180        0.00000
C         -0.70613        3.30477        0.00000
C         -0.78366        1.90231        0.00000
C         -0.81723        0.70193        0.00000
C         -0.81657       -0.70266        0.00000
C         -0.78187       -1.90300        0.00000
C         -0.70303       -3.30539        0.00000
C         -0.60615       -4.50233        0.00000
C         -0.46302       -5.89965        0.00000
C         -0.32102       -7.09211        0.00000
C         -0.13870       -8.48496        0.00000
C          0.02365       -9.67486        0.00000
H          0.16660      -10.72350        0.00000
