48
	Energy:      -4.3899626
C          0.69764      -29.02293        0.00225
C          0.64406      -27.82222       -0.02988
H          0.74476      -30.07984        0.03052
C          0.57672      -26.41730       -0.06602
C          0.51080      -25.21715       -0.09425
C          0.41995      -23.81348       -0.12286
C          0.32733      -22.61495       -0.14238
C          0.19903      -21.21402       -0.15849
C          0.07101      -20.01862       -0.16581
C         -0.10054      -18.62224       -0.16637
C         -0.26477      -17.43127       -0.15989
C         -0.47542      -16.04031       -0.14433
C         -0.66789      -14.85372       -0.12470
C         -0.90335      -13.46696       -0.09511
C         -1.10798      -12.28260       -0.06523
C         -1.34540      -10.89641       -0.02619
C         -1.53994       -9.71050        0.00916
C         -1.75094       -8.32012        0.05119
C         -1.91007       -7.12893        0.08598
C         -2.06481       -5.73108        0.12361
C         -2.16402       -4.53324        0.15147
C         -2.23623       -3.12846        0.17752
C         -2.25635       -1.92648        0.19287
C         -2.22862       -0.51993        0.20173
C         -2.16011        0.68036        0.20088
C         -2.02833        2.08098        0.18978
C         -1.87422        3.27316        0.17184
C         -1.64966        4.66166        0.14158
C         -1.42588        5.84245        0.10883
C         -1.13397        7.21799        0.06384
C         -0.86717        8.38951        0.02139
C         -0.54369        9.75771       -0.03100
C         -0.26713       10.92687       -0.07599
C          0.04709       12.29727       -0.12672
C          0.29827       13.47232       -0.16628
C          0.56326       14.85341       -0.20609
C          0.75734       16.03956       -0.23274
C          0.94033       17.43426       -0.25381
C          1.05450       18.63100       -0.26206
C          1.13621       20.03540       -0.25968
C          1.16140       21.23727       -0.24726
C          1.14057       22.64367       -0.22098
C          1.08386       23.84412       -0.18943
C          0.97800       25.24621       -0.14327
C          0.86143       26.44194       -0.09771
C          0.70340       27.83878       -0.03934
C          0.55966       29.03133        0.01258
H          0.43308       30.08107        0.05830
