34
	Energy:      -3.8338155
C          0.32559      -19.99998       -0.01905
C          0.11617      -18.81407       -0.00917
H          0.50958      -21.04217       -0.02774
C         -0.12771      -17.42519        0.00209
C         -0.33346      -16.23868        0.01114
C         -0.56998      -14.84860        0.02082
C         -0.76670      -13.66057        0.02806
C         -0.98927      -12.26818        0.03513
C         -1.17099      -11.07777        0.03982
C         -1.37219       -9.68212        0.04363
C         -1.53222       -8.48859        0.04542
C         -1.70378       -7.08899        0.04582
C         -1.83476       -5.89193        0.04478
C         -1.96786       -4.48816        0.04208
C         -2.06219       -3.28766        0.03868
C         -2.14803       -1.88022        0.03363
C         -2.19850       -0.67710        0.02867
C         -2.22922        0.73261        0.02235
C         -2.22984        1.93678        0.01681
C         -2.19951        3.34649        0.01041
C         -2.14641        4.54949        0.00529
C         -2.05210        5.95637       -0.00005
C         -1.94432        7.15571       -0.00385
C         -1.78688        8.55693       -0.00726
C         -1.62691        9.75044       -0.00915
C         -1.41138       11.14391       -0.01013
C         -1.20531       12.33034       -0.00989
C         -0.94083       13.71536       -0.00839
C         -0.69807       14.89484       -0.00618
C         -0.39735       16.27245       -0.00264
C         -0.12999       17.44663        0.00101
C          0.19163       18.81960        0.00581
C          0.46970       19.99134        0.01013
H          0.71410       21.02107        0.01393
