20
	Energy:      -1.6320676
C         10.96708        0.00000        0.02839
C          9.77897        0.00000       -0.15094
H         12.01357        0.00000        0.18624
C          8.38798        0.00000       -0.35423
C          7.19740        0.00000       -0.51600
C          5.80195        0.00000       -0.68522
C          4.60669        0.00000       -0.80734
C          3.20550        0.00000       -0.91928
C          2.00583        0.00000       -0.98491
C          0.60073        0.00000       -1.02405
C         -0.60073        0.00000       -1.02405
C         -2.00583        0.00000       -0.98491
C         -3.20550        0.00000       -0.91928
C         -4.60669        0.00000       -0.80734
C         -5.80195        0.00000       -0.68522
C         -7.19740        0.00000       -0.51600
C         -8.38798        0.00000       -0.35423
C         -9.77897        0.00000       -0.15094
C        -10.96708        0.00000        0.02839
H        -12.01357        0.00000        0.18624
