22
	Energy:      -1.9534198
C         12.25921        0.00000        0.03353
C         11.07278        0.00000       -0.16047
H         13.30369        0.00000        0.20424
C          9.68352        0.00000       -0.38184
C          8.49472        0.00000       -0.56062
C          7.10119        0.00000       -0.75234
C          5.90771        0.00000       -0.89638
C          4.50816        0.00000       -1.03742
C          3.30964        0.00000       -1.13082
C          1.90502        0.00000       -1.20553
C          0.70331        0.00000       -1.23787
C         -0.70331        0.00000       -1.23787
C         -1.90502        0.00000       -1.20553
C         -3.30964        0.00000       -1.13082
C         -4.50816        0.00000       -1.03742
C         -5.90771        0.00000       -0.89638
C         -7.10119        0.00000       -0.75234
C         -8.49472        0.00000       -0.56062
C         -9.68352        0.00000       -0.38184
C        -11.07278        0.00000       -0.16047
C        -12.25921        0.00000        0.03353
H        -13.30369        0.00000        0.20424
