16
	Energy:      -0.8506394
C          8.38253        0.00000       -0.01016
C          7.18577        0.00000       -0.00466
H          9.44086        0.00000       -0.01500
C          5.78772        0.00000        0.00143
C          4.59100        0.00000        0.00602
C          3.19302        0.00000        0.01036
C          1.99632        0.00000        0.01296
C          0.59835        0.00000        0.01452
C         -0.59835        0.00000        0.01452
C         -1.99632        0.00000        0.01296
C         -3.19302        0.00000        0.01036
C         -4.59100        0.00000        0.00602
C         -5.78772        0.00000        0.00143
C         -7.18577        0.00000       -0.00466
C         -8.38253        0.00000       -0.01016
H         -9.44086        0.00000       -0.01500
