14
	Energy:      -0.8028545
C          7.08967        0.00000       -0.00950
C          5.89265        0.00000        0.03518
H          8.14728        0.00000       -0.04889
C          4.49379        0.00000        0.08349
C          3.29651        0.00000        0.11782
C          1.89731        0.00000        0.14666
C          0.69970        0.00000        0.15949
C         -0.69970        0.00000        0.15949
C         -1.89731        0.00000        0.14666
C         -3.29651        0.00000        0.11782
C         -4.49379        0.00000        0.08349
C         -5.89265        0.00000        0.03518
C         -7.08967        0.00000       -0.00950
H         -8.14728        0.00000       -0.04889
