52
	Energy:      -5.8710548
C          0.78598      -31.60095       -0.00269
C          0.51822      -30.42727       -0.00225
H          1.02131      -32.63279       -0.00306
C          0.20593      -29.05289       -0.00113
C         -0.05850      -27.87851        0.00090
C         -0.36405      -26.50270        0.00502
C         -0.62011      -25.32652        0.01044
C         -0.91254      -23.94789        0.01930
C         -1.15425      -22.76871        0.02916
C         -1.42587      -21.38588        0.04340
C         -1.64607      -20.20254        0.05771
C         -1.88782      -18.81424        0.07667
C         -2.07824      -17.62580        0.09428
C         -2.27996      -16.23116        0.11596
C         -2.43168      -15.03719        0.13464
C         -2.58283      -13.63617        0.15590
C         -2.68706      -12.43710        0.17264
C         -2.77791      -11.03085        0.18966
C         -2.82711       -9.82821        0.20109
C         -2.85010       -8.41915        0.20996
C         -2.83924       -7.21552        0.21291
C         -2.79045       -5.80710        0.21028
C         -2.71816       -4.60562        0.20234
C         -2.59851       -3.20155        0.18606
C         -2.46790       -2.00515        0.16610
C         -2.28382       -0.60830        0.13574
C         -2.10273        0.58125        0.10418
C         -1.86609        1.96983        0.06123
C         -1.64677        3.15264        0.02019
C         -1.37411        4.53429       -0.03195
C         -1.13229        5.71248       -0.07884
C         -0.84356        7.09068       -0.13519
C         -0.59715        8.26788       -0.18314
C         -0.31395        9.64729       -0.23762
C         -0.08153       10.82749       -0.28122
C          0.17475       12.21244       -0.32737
C          0.37569       13.39871       -0.36120
C          0.58596       14.79176       -0.39298
C          0.74083       15.98523       -0.41231
C          0.89046       17.38638       -0.42490
C          0.98930       18.58594       -0.42641
C          1.07002       19.99275       -0.41696
C          1.10893       21.19562       -0.39923
C          1.12009       22.60436       -0.36738
C          1.10192       23.80732       -0.33122
C          1.05075       25.21458       -0.27920
C          0.98485       26.41531       -0.22756
C          0.88572       27.81937       -0.15996
C          0.78683       29.01736       -0.09760
C          0.65942       30.41876       -0.02081
C          0.54594       31.61526        0.04630
H          0.44614       32.66722        0.10532
