34
	Energy:      36.2197173
C          0.32559      -20.53826       -0.01905
C          0.29300      -19.32102       -0.00763
H          0.37276      -21.61265       -0.05426
C          0.23539      -17.88451       -0.00852
C          0.21013      -16.65622        0.00144
C          0.14363      -15.21934       -0.00541
C          0.12056      -14.00444        0.00388
C          0.08597      -12.57040       -0.00771
C          0.03055      -11.35830        0.01108
C         -0.00229       -9.89863        0.01818
C         -0.06748       -8.69652        0.00149
C         -0.09311       -7.24661        0.01478
C         -0.11405       -6.03617       -0.00581
C         -0.16723       -4.60099        0.00911
C         -0.17989       -3.37789        0.02093
C         -0.22602       -1.93822       -0.00512
C         -0.23092       -0.72471        0.00519
C         -0.22911        0.73534       -0.01054
C         -0.24717        1.93571       -0.00308
C         -0.22131        3.38186        0.00911
C         -0.21550        4.58661       -0.01062
C         -0.19294        6.03585        0.00124
C         -0.15074        7.26425       -0.02053
C         -0.12829        8.69388       -0.01048
C         -0.06824        9.90932        0.00291
C         -0.01049       11.34922       -0.01368
C          0.03336       12.55465       -0.00047
C          0.11693       14.01816       -0.00561
C          0.15939       15.21168       -0.00798
C          0.25339       16.66755        0.00750
C          0.33289       17.86432       -0.00584
C          0.39843       19.31106        0.01372
C          0.46970       20.52962        0.01013
H          0.54643       21.61440        0.05490
