16
	Energy:       2.3028517
C          8.60818        0.00000       -0.01016
C          7.38429        0.00007       -0.00795
H          9.66652       -0.00008       -0.01207
C          5.94264        0.00009       -0.00533
C          4.71883       -0.00005       -0.00335
C          3.27727       -0.00028       -0.00121
C          2.05349       -0.00062        0.00041
C          0.61192       -0.00099        0.00183
C         -0.61187       -0.00129        0.00246
C         -2.05344       -0.00159        0.00238
C         -3.27724       -0.00169        0.00151
C         -4.71881       -0.00156       -0.00050
C         -5.94264       -0.00124       -0.00300
C         -7.38429       -0.00063       -0.00668
C         -8.60818        0.00000       -0.01016
H         -9.66652        0.00061       -0.01333
