12
	Energy:       1.9734973
C          0.00000        0.00000       -5.95259
C          0.01246        0.00198       -4.76337
H         -0.01097       -0.00174       -7.01751
C          0.02394        0.00375       -3.27366
C          0.02587        0.00388       -2.08434
C          0.02127        0.00281       -0.59469
C          0.01414        0.00138        0.59459
C          0.00504       -0.00031        2.08424
C          0.00078       -0.00088        3.27352
C         -0.00083       -0.00068        4.76332
C          0.00000        0.00000        5.95259
H          0.00058        0.00056        7.01757
