14
	Energy:       3.0005092
C          7.28052        0.00000       -0.00950
C          6.09220       -0.00136       -0.00926
H          8.34550        0.00134       -0.00955
C          4.60594       -0.00257       -0.00850
C          3.41759       -0.00287       -0.00742
C          1.93142       -0.00270       -0.00582
C          0.74308       -0.00232       -0.00476
C         -0.74307       -0.00181       -0.00399
C         -1.93142       -0.00152       -0.00412
C         -3.41758       -0.00126       -0.00503
C         -4.60594       -0.00102       -0.00627
C         -6.09220       -0.00056       -0.00808
C         -7.28052        0.00000       -0.00950
H         -8.34550        0.00063       -0.01063
