6
	Energy:       1.7940822
C          0.00000        0.00000       -1.96268
C          0.00000        0.00000       -0.72884
H          0.00000        0.00000       -3.02102
C          0.00000        0.00000        0.72884
C          0.00000        0.00000        1.96268
H          0.00000        0.00000        3.02102
