10
	Energy:       1.0529309
C          4.62396        0.00000       -0.00216
C          3.43323       -0.00063        0.00291
H          5.68891        0.00068       -0.00744
C          1.93825       -0.00083        0.00679
C          0.74744       -0.00022        0.00675
C         -0.74744        0.00102        0.00428
C         -1.93823        0.00160        0.00178
C         -3.43322        0.00132       -0.00084
C         -4.62396        0.00000       -0.00216
H         -5.68892       -0.00176       -0.00299
