42
	Energy:      34.3970243
C          0.54314      -25.83381        0.00719
C          0.49506      -24.63891        0.02774
C          0.42276      -23.19516       -0.00374
C          0.35242      -21.98596        0.01693
C          0.30836      -20.49169       -0.02763
C          0.23852      -19.33640       -0.00623
C          0.18462      -17.85349        0.01502
C          0.14416      -16.68911       -0.01588
C          0.08108      -15.19770        0.01826
C          0.03200      -13.99834       -0.01235
C         -0.03889      -12.54813       -0.00386
C         -0.06875      -11.35142        0.01787
C         -0.07899       -9.91292       -0.02563
C         -0.14121       -8.71427        0.00953
C         -0.16846       -7.22280        0.00597
C         -0.22308       -6.05834       -0.01078
C         -0.23843       -4.57251        0.01174
C         -0.21756       -3.39962       -0.03083
C         -0.26025       -1.93035        0.00571
C         -0.25596       -0.73133        0.02904
C         -0.27289        0.72147        0.00005
C         -0.25791        1.93066        0.00952
C         -0.22269        3.41183       -0.03271
C         -0.22381        4.57613        0.00376
C         -0.19021        6.05766        0.02722
C         -0.18213        7.21388       -0.00241
C         -0.15033        8.71530        0.01962
C         -0.09517        9.91445       -0.03644
C         -0.06652       11.35305       -0.00116
C         -0.01775       12.54955        0.02091
C          0.03154       13.99982       -0.00994
C          0.05988       15.19940        0.01115
C          0.14108       16.69057       -0.00708
C          0.17423       17.85515        0.00080
C          0.24675       19.33811        0.00803
C          0.33565       20.49298       -0.02380
C          0.37214       21.98563        0.00929
C          0.43490       23.18576       -0.00943
C          0.47361       24.63976       -0.01622
C          0.54836       25.83359       -0.01317
H          0.56185       26.91409        0.04428
H          0.67569      -26.90530       -0.07975
