20
	Energy:       7.0932508
C         11.26230        0.00000        0.02839
C         10.07635        0.00868        0.01401
H         12.31245       -0.00679        0.03715
C          8.59551        0.00591        0.01640
C          7.40698       -0.00934        0.00389
C          5.92449       -0.00146        0.00430
C          4.74084        0.01104       -0.01134
C          3.25109       -0.00420       -0.01319
C          2.07234        0.00365       -0.00803
C          0.60184       -0.01160       -0.02052
C         -0.59465       -0.00372       -0.01257
C         -2.06996        0.00878       -0.01686
C         -3.26213       -0.00646       -0.01537
C         -4.73825        0.00140       -0.00253
C         -5.91738        0.00003       -0.00802
C         -7.40431       -0.00133        0.00721
C         -8.58842        0.00653        0.01705
C        -10.08152       -0.00872        0.01974
C        -11.26230        0.00000        0.02839
H        -12.32350        0.01306        0.05694
