38
	Energy:      21.7104819
C          0.43193      -23.18671       -0.00022
C          0.38114      -22.00264        0.00303
H          0.49570      -24.22207       -0.01484
C          0.31878      -20.53145       -0.00543
C          0.28085      -19.33833        0.00404
C          0.22609      -17.88179       -0.00307
C          0.16692      -16.68866        0.00060
C          0.11904      -15.20564        0.00405
C          0.06156      -14.03327        0.00189
C          0.01669      -12.54553       -0.00059
C         -0.01548      -11.37311       -0.00850
C         -0.07714       -9.89587       -0.00566
C         -0.10393       -8.70258        0.00291
C         -0.16317       -7.24646       -0.00510
C         -0.18227       -6.04785       -0.00177
C         -0.20325       -4.58108       -0.00928
C         -0.23456       -3.39792       -0.01087
C         -0.24238       -1.91555        0.00441
C         -0.26229       -0.74786       -0.00747
C         -0.26079        0.74011        0.00314
C         -0.24650        1.92867       -0.00814
C         -0.24618        3.39544       -0.00240
C         -0.21433        4.58368        0.00855
C         -0.18846        6.03978        0.00337
C         -0.16762        7.23851        0.00853
C         -0.11807        8.72129       -0.00285
C         -0.09904        9.89380        0.00144
C         -0.03381       11.37578        0.01063
C          0.01412       12.54284        0.00253
C          0.05924       14.02541        0.00424
C          0.11727       15.21843       -0.00006
C          0.16715       16.68014       -0.00596
C          0.22798       17.87817       -0.00640
C          0.30248       19.33453       -0.01966
C          0.34279       20.52745       -0.02133
C          0.41844       22.00523       -0.01932
C          0.46472       23.18463       -0.03327
H          0.47473       24.22405       -0.03624
