8
	Energy:       1.9471908
C          0.00000        0.00000       -3.29407
C          0.00021        0.00094       -2.06483
H         -0.00058       -0.00153       -4.35241
C          0.00023        0.00143       -0.61461
C          0.00016        0.00135        0.61459
C          0.00001        0.00074        2.06482
C          0.00000        0.00000        3.29407
H          0.00031       -0.00061        4.35241
